electric-grid/smallsignal/NE-68bus/PSLF/ThreeMIB_Benchmark_System.epc
title
!
comments
!
solution parameters
tap    1    tcul  enabled/disabled
phas   1    ps    enabled/disabled
area   1    area  enabled/disabled
svd    1    svd   enabled/disabled
dctap  1    dc    enabled/disabled
gcd    0    gcd   enabled/disabled
jump  0.000200    jumper threshold
toler   0.1000    newton tolerance
sbase 100.0000    system mva base
!
bus data  [6]               ty  vsched   volt     angle    ar zone  vmax   vmin   date_in date_out pid L own st  latitude  longitude island    sdmon   vmax1      vmin1      dvmax
      1 "1           "  18.0000 :  2 1.04000 1.040000  -6.59571   1    1 1.1000 0.9000   400101   391231   0 0   1 0    0.00000    0.00000 0    0.00000    0.00000    0.00000
      2 "2           "  18.0000 :  2 1.04000 1.040000  -6.59571   1    1 1.1000 0.9000   400101   391231   0 0   1 0    0.00000    0.00000 0    0.00000    0.00000    0.00000
      3 "3           "  18.0000 :  2 1.02000 1.020000 -37.11991   1    1 1.1000 0.9000   400101   391231   0 0   1 0    0.00000    0.00000 0    0.00000    0.00000    0.00000
      4 "4           " 500.0000 :  1 1.016913 1.016913 -11.47722   1    1 1.1000 0.9000   400101   391231   0 0   1 0    0.00000    0.00000 0    0.00000    0.00000    0.00000
      5 "5           " 500.0000 :  1 0.972777 0.972777 -42.30083   1    1 1.1000 0.9000   400101   391231   0 0   1 0    0.00000    0.00000 0    0.00000    0.00000    0.00000
      6 "6           " 500.0000 :  0 1.00000 1.000000 -57.16783   1    1 1.1000 0.9000   400101   391231   0 0   1 0    0.00000    0.00000 0    0.00000    0.00000    0.00000
branch data  [    2]                                          ck  se  ------------long_id_------------    st resist   react   charge   rate1  rate2  rate3  rate4 aloss  lngth 
      4 "4           " 500.00       5 "5           " 500.00  "1 "  1 "                                " :  1  0.000000  0.036000  0.000000 10000.0    0.0    0.0    0.0 0.000    0.0 /
   1    1  0.000000  0.000000  1.000000   400101   391231   0 1  0    0.0    0.0    0.0    0.0   1 1.000   0 0.000   0 0.000   0 0.000   0 0.000   0 0.000   0 0.000   0 0.000  0 0 
      5 "5           " 500.00       6 "6           " 500.00  "1 "  1 "                                " :  1  0.000000  0.120000  0.000000 10000.0    0.0    0.0    0.0 0.000    0.0 /
   1    1  0.000000  0.000000  1.000000   400101   391231   0 1  0    0.0    0.0    0.0    0.0   1 1.000   0 0.000   0 0.000   0 0.000   0 0.000   0 0.000   0 0.000   0 0.000  0 0 
transformer data  [   3]                                     ck   ------------long_id_------------     st ty --no---    reg_name          zt         int                              tert                   ar zone  tbase   ps_r    ps_x    pt_r    pt_x    ts_r    ts_x
      1 "1           "  18.00       4 "4           " 500.00  "1 " "                                " :  1  1       0 "            "   0.00  0       0 "            "   0.00       0 "            "   0.00    1    1 100.000000 0.000000E+000 6.410000E-003 0.000000E+000 0.000000E+000 0.000000E+000 0.000000E+000 /
 18.000000 500.000000  0.000000  0.000000 0.000000E+000 0.000000E+000 10000.0    0.0    0.0    0.0 0.000  1.500000  0.510000  1.500000  0.510000 -0.006250  1.000000  1.000000  1.000000  1.000000   400101   391231   0 1     0.0    0.0    0.0    0.0 /
   1 1.000   0 0.000   0 0.000   0 0.000   0 0.000   0 0.000   0 0.000   0 0.000  0 /
   0.000000   0.000000  0.000000  0.000000     0.0    0.0    0.0     0.0    0.0    0.0 0.000 0.000  0  0  0 0.0000 0.0000 0 
      2 "2           "  18.00       4 "4           " 500.00  "1 " "                                " :  1  1       0 "            "   0.00  0       0 "            "   0.00       0 "            "   0.00    1    1 100.000000 0.000000E+000 6.410000E-003 0.000000E+000 0.000000E+000 0.000000E+000 0.000000E+000 /
 18.000000 500.000000  0.000000  0.000000 0.000000E+000 0.000000E+000 10000.0    0.0    0.0    0.0 0.000  1.500000  0.510000  1.500000  0.510000 -0.006250  1.000000  1.000000  1.000000  1.000000   400101   391231   0 1     0.0    0.0    0.0    0.0 /
   1 1.000   0 0.000   0 0.000   0 0.000   0 0.000   0 0.000   0 0.000   0 0.000  0 /
   0.000000   0.000000  0.000000  0.000000     0.0    0.0    0.0     0.0    0.0    0.0 0.000 0.000  0  0  0 0.0000 0.0000 0 
      3 "3           "  18.00       5 "5           " 500.00  "1 " "                                " :  1  1       0 "            "   0.00  0       0 "            "   0.00       0 "            "   0.00    1    1 100.000000 0.000000E+000 8.641975E+000 0.000000E+000 0.000000E+000 0.000000E+000 0.000000E+000 /
 18.000000 18.000000  0.000000  0.000000 0.000000E+000 0.000000E+000 10000.0    0.0    0.0    0.0 0.000  0.054000  0.018360  1.500000  0.510000 -0.000225  0.036000  1.000000  1.000000  1.000000   400101   391231   0 1     0.0    0.0    0.0    0.0 /
   1 1.000   0 0.000   0 0.000   0 0.000   0 0.000   0 0.000   0 0.000   0 0.000  0 /
   0.000000   0.000000  0.000000  0.000000     0.0    0.0    0.0     0.0    0.0    0.0 0.000 0.000  0  0  0 0.0000 0.0000 0 
generator data  [   4]         id   ------------long_id_------------    st ---no--     reg_name           prf  qrf  ar zone   pgen   pmax   pmin   qgen   qmax   qmin   mbase  cmp_r cmp_x gen_r gen_x           hbus                         tbus                date_in date_out pid N
      1 "1           "  18.00 "1 " "                                " :  1       1 "1           "  18.00  1.000000  1.000000   1    1 1403.999996 1560.000038   0.000000 434.409142 9900.000000 -9900.000000 1560.0000 0.000 0.000 0.002 0.290      -1 "            "   0.00      -1 "            "   0.00    400101   391231   0 0 /
 0.0000 0.0000 1.0000    1 1.000   0 0.000   0 0.000   0 0.000   0 0.000   0 0.000   0 0.000   0 0.000   0   0   0   0   0   0   0    0.0 0 0  1.000000
      2 "2           "  18.00 "1 " "                                " :  1       2 "2           "  18.00  1.000000  1.000000   1    1 1403.999996 1560.000038   0.000000 434.408522 9900.000000 -9900.000000 1560.0000 0.000 0.000 0.002 0.290      -1 "            "   0.00      -1 "            "   0.00    400101   391231   0 0 /
 0.0000 0.0000 1.0000    1 1.000   0 0.000   0 0.000   0 0.000   0 0.000   0 0.000   0 0.000   0 0.000   0   0   0   0   0   0   0    0.0 0 0  1.000000
      3 "3           "  18.00 "1 " "                                " :  1       3 "3           "  18.00  1.000000  1.000000   1    1 800.000000 889.999962   0.000000 466.249895 9900.000000 -9900.000000 890.0000 0.000 0.000 0.000 0.337      -1 "            "   0.00      -1 "            "   0.00    400101   391231   0 0 /
 0.0000 0.0000 1.0000    1 1.000   0 0.000   0 0.000   0 0.000   0 0.000   0 0.000   0 0.000   0 0.000   0   0   0   0   0   0   0    0.0 0 0  1.000000
      6 "6           " 500.00 "1 " "                                " :  1       6 "6           " 500.00  1.000000  1.000000   1    1 9792.006683 20000.000000   0.000000 2049.822807 9900.000000 -9900.000000 100000.0000 0.000 0.000 0.000 0.200      -1 "            "   0.00      -1 "            "   0.00    400101   391231   0 0 /
 0.0000 0.0000 1.0000    1 1.000   0 0.000   0 0.000   0 0.000   0 0.000   0 0.000   0 0.000   0 0.000   0   0   0   0   0   0   0    0.0 0 0  1.000000
load data  [   4]             id   ------------long_id_------------     st      mw      mvar    mw_i    mvar_i  mw_z      mvar_z  ar zone  date_in date_out pid N own M nonc  thr_bus flg
      4 "4           " 500.00 "1 " "                                "  :  1 1400.000000 100.000000 0.000000 0.000000 0.000000 0.000000   1    1   400101   391231   0 0   1 0    0       0 "            "   0.00   0
      5 "5           " 500.00 "1 " "                                "  :  1 2000.000000 100.000000 0.000000 0.000000 0.000000 0.000000   1    1   400101   391231   0 0   1 0    0       0 "            "   0.00   0
      5 "5           " 500.00 "2 " "                                "  :  0 0.000000 50.000000 0.000000 0.000000 0.000000 0.000000   1    1   400101   391231   0 0   1 0    0       0 "            "   0.00   0
      6 "6           " 500.00 "1 " "                                "  :  1 10000.000000 2000.000000 0.000000 0.000000 0.000000 0.000000   1    1   400101   391231   0 0   1 0    0       0 "            "   0.00   0
shunt data  [   0]             id                                 ck  se  ------------long_id_------------     st ar  zone    pu_mw  pu_mvar  date_in date_out pid N own part1 own part2 own part3 own part4 --num-- ----name----  --kv-- M --num--  ----name----  --kv--  ID  st
svd data  [   0]               id   ------------long_id_------------    st ty --no---     reg_name           ar zone      g      b  min_c  max_c  vband   bmin   bmax  date_in date_out pid N own part1 own part2 own part3 own part4 M st
area data  [  1]                            swing  desired    tol      pnet     qnet
    1 "1                               "       0    0.000    1.000   -0.001    0.000 0
zone data  [   1]                            pnet     qnet
    1 "1                               "   -0.001    0.000 0
interface data  [   0]                      pnet     qnet   -rate1- -rate2- -rate3- -rate4- -rate5- -rate6- -rate7- -rate8-
interface branch data  [    0]                              ck      -i_no-  part_fac  
dc bus data  [ 0]             ty ar  zone   vsched     dc_volt  date_in date_out pid own
dc converter data  [ 0]                               id   long_id_    st ty md nb fg  --no---           reg   ar zone  date_in date_out
z table data  [ 0]  -tap2 fact2 -tap3 fact3 -tap4 fact4 -tap5 fact5 -tap6 fact6 -tap7 fact7 -tap8 fact8 -tap9 fact9 tap10 fac10 tap11 fac11
gcd data  [   0]
transaction data  [    0]              st    sch_mw   sch_mvar  flag stn pid         transaction name
owner data  [    1]    owner name           s name       net_mw   net_mvar     sch_mw   sch_mvar  ar
       1 "1                               " "    " :     0.000      0.000      0.000      0.000   0 0 


qtable data     [   0]   id     p[0]   qmx[0]  qmn[0]  ....
end
